124
CA model of /home/nick/westpa/lib/examples/stringmethodexamples/examples/ElasticNetworkModel/data/1DC8.pdb
CA -17.085 12.544 12.648
CA -14.148 10.185 12.283
CA -12.541 8.787 9.154
CA -9.415 6.912 8.135
CA -8.701 3.369 7.011
CA -5.587 1.275 6.519
CA -5.300 -1.575 4.045
CA -2.465 -4.072 3.796
CA -1.783 -7.019 1.520
CA 0.956 -9.569 2.084
CA 1.674 -13.226 2.743
CA 5.109 -13.267 4.330
CA 4.460 -15.052 7.603
CA 2.838 -12.652 10.040
CA 3.789 -9.132 9.026
CA 0.383 -7.814 8.032
CA -0.574 -9.022 11.489
CA 1.939 -6.649 13.032
CA 1.566 -4.096 10.262
CA -2.203 -3.957 10.590
CA -1.614 -3.700 14.320
CA 0.603 -0.656 13.944
CA -1.377 0.792 11.061
CA -4.696 0.486 12.855
CA -3.106 2.065 15.905
CA -2.036 4.940 13.688
CA -5.479 5.809 12.381
CA -8.551 3.601 12.500
CA -10.135 0.652 10.732
CA -7.534 -1.628 9.195
CA -7.640 -4.826 7.172
CA -5.382 -7.506 5.742
CA -5.448 -9.671 2.638
CA -3.387 -12.383 0.990
CA -2.218 -11.276 -2.436
CA -4.404 -8.193 -2.640
CA -5.994 -9.229 -5.915
CA -9.647 -8.898 -4.980
CA -8.539 -5.792 -3.122
CA -7.751 -4.302 -6.510
CA -11.321 -4.496 -7.751
CA -12.136 -3.593 -4.167
CA -9.955 -0.508 -4.406
CA -11.924 1.079 -7.222
CA -14.969 0.677 -5.010
CA -13.980 1.607 -1.476
CA -10.359 2.704 -1.350
CA -9.130 3.619 2.139
CA -6.873 6.505 3.091
CA -3.898 4.316 2.262
CA -2.852 0.777 1.423
CA 0.217 -1.417 1.116
CA 1.325 -3.974 -1.445
CA 3.963 -6.599 -0.749
CA 4.244 -9.484 -3.183
CA 5.459 -10.257 -6.684
CA 2.634 -11.900 -8.594
CA 0.984 -10.941 -11.892
CA -2.652 -10.028 -12.407
CA -2.316 -7.313 -9.791
CA 0.999 -6.653 -8.087
CA 1.912 -3.156 -6.965
CA 3.528 -1.278 -9.826
CA 2.710 -4.158 -12.142
CA 1.480 -2.837 -15.468
CA 0.928 0.829 -14.705
CA -2.528 1.451 -16.117
CA -4.824 -0.556 -13.876
CA -2.753 0.863 -11.044
CA -3.951 4.287 -12.121
CA -7.719 4.075 -11.833
CA -7.367 1.528 -9.056
CA -5.242 4.082 -7.242
CA -3.903 7.027 -9.254
CA -3.332 9.340 -6.313
CA -4.309 6.984 -3.516
CA -1.282 5.818 -1.518
CA -0.505 2.167 -2.149
CA 3.139 2.296 -1.128
CA 5.023 -0.834 -2.116
CA 7.135 -3.704 -0.840
CA 10.078 -5.506 -2.398
CA 13.831 -5.369 -1.934
CA 16.449 -6.429 -4.454
CA 16.222 -4.800 -7.863
CA 13.248 -2.575 -8.589
CA 14.125 0.081 -11.140
CA 10.449 -0.032 -12.037
CA 9.281 0.624 -8.497
CA 11.981 3.264 -8.242
CA 10.086 5.232 -10.862
CA 6.521 4.011 -11.220
CA 6.413 3.906 -7.439
CA 7.673 7.473 -7.328
CA 4.859 9.114 -9.256
CA 2.262 6.508 -10.144
CA 2.001 3.165 -8.386
CA 2.366 4.933 -5.059
CA 4.767 7.741 -4.235
CA 5.897 5.928 -1.111
CA 7.823 2.707 -0.619
CA 8.639 0.189 2.086
CA 11.782 -1.570 0.843
CA 13.743 -4.031 2.946
CA 12.392 -5.367 6.249
CA 11.491 -1.921 7.530
CA 10.110 -1.358 11.009
CA 6.652 -0.687 12.393
CA 6.879 3.015 13.151
CA 9.026 3.373 10.055
CA 6.208 1.628 8.229
CA 3.247 3.239 9.949
CA 4.915 6.627 10.186
CA 5.423 6.108 6.470
CA 1.682 5.778 5.991
CA 0.966 8.860 8.068
CA 3.049 10.850 5.612
CA 1.240 9.334 2.652
CA -2.115 10.201 4.173
CA -1.227 13.851 4.637
CA 0.419 13.722 1.230
CA -3.111 14.149 -0.065
CA -3.523 17.538 1.570
CA -1.252 20.065 -0.101
